C6C
     RDKit          3D

 40 40  0  0  0  0  0  0  0  0999 V2000
   -2.3159   -1.1448   -0.4676 C   0  0  2  0  0  0  0  0  0  0  0  0
   -0.9068   -1.2734    0.1343 C   0  0  0  0  0  0  0  0  0  0  0  0
   -0.5123   -0.0886    1.4816 S   0  0  0  0  0  0  0  0  0  0  0  0
    0.0532    1.6222    0.4910 S   0  0  0  0  0  0  0  0  0  0  0  0
    1.8860    1.5328    0.3466 C   0  0  0  0  0  0  0  0  0  0  0  0
    2.5696    1.5700    1.7190 C   0  0  0  0  0  0  0  0  0  0  0  0
    4.0921    1.5692    1.5720 C   0  0  0  0  0  0  0  0  0  0  0  0
    4.5787    0.3939    0.7282 C   0  0  0  0  0  0  0  0  0  0  0  0
    3.8854    0.3483   -0.6311 C   0  0  0  0  0  0  0  0  0  0  0  0
    2.3632    0.3377   -0.4848 C   0  0  0  0  0  0  0  0  0  0  0  0
   -2.4928    0.1170   -1.3307 C   0  0  0  0  0  0  0  0  0  0  0  0
   -3.3022    0.9990   -1.0436 O   0  0  0  0  0  0  0  0  0  0  0  0
   -1.6933    0.1677   -2.4566 N   0  0  0  0  0  0  0  0  0  0  0  0
   -1.8080    1.2635   -3.3862 C   0  0  0  0  0  0  0  0  0  0  0  0
   -3.3793   -1.1834    0.5324 N   0  0  0  0  0  0  0  0  0  0  0  0
   -3.7444   -2.3390    1.1673 C   0  0  0  0  0  0  0  0  0  0  0  0
   -3.2245   -3.4247    0.9274 O   0  0  0  0  0  0  0  0  0  0  0  0
   -4.8376   -2.1776    2.1873 C   0  0  0  0  0  0  0  0  0  0  0  0
   -2.4795   -2.0017   -1.1350 H   0  0  0  0  0  0  0  0  0  0  0  0
   -0.1390   -1.2099   -0.6424 H   0  0  0  0  0  0  0  0  0  0  0  0
   -0.8045   -2.2675    0.5836 H   0  0  0  0  0  0  0  0  0  0  0  0
    2.1655    2.4476   -0.1915 H   0  0  0  0  0  0  0  0  0  0  0  0
    2.2679    2.4670    2.2733 H   0  0  0  0  0  0  0  0  0  0  0  0
    2.2799    0.7025    2.3239 H   0  0  0  0  0  0  0  0  0  0  0  0
    4.4135    2.5093    1.1069 H   0  0  0  0  0  0  0  0  0  0  0  0
    4.5574    1.5287    2.5633 H   0  0  0  0  0  0  0  0  0  0  0  0
    5.6629    0.4659    0.5866 H   0  0  0  0  0  0  0  0  0  0  0  0
    4.3881   -0.5433    1.2657 H   0  0  0  0  0  0  0  0  0  0  0  0
    4.2086   -0.5437   -1.1795 H   0  0  0  0  0  0  0  0  0  0  0  0
    4.1897    1.2177   -1.2267 H   0  0  0  0  0  0  0  0  0  0  0  0
    1.9078    0.3575   -1.4822 H   0  0  0  0  0  0  0  0  0  0  0  0
    2.0751   -0.6075   -0.0109 H   0  0  0  0  0  0  0  0  0  0  0  0
   -1.2514   -0.6822   -2.7817 H   0  0  0  0  0  0  0  0  0  0  0  0
   -2.7023    1.1130   -3.9965 H   0  0  0  0  0  0  0  0  0  0  0  0
   -0.9210    1.2720   -4.0237 H   0  0  0  0  0  0  0  0  0  0  0  0
   -1.8890    2.2115   -2.8475 H   0  0  0  0  0  0  0  0  0  0  0  0
   -3.8148   -0.2943    0.7623 H   0  0  0  0  0  0  0  0  0  0  0  0
   -4.4576   -2.4776    3.1676 H   0  0  0  0  0  0  0  0  0  0  0  0
   -5.6830   -2.8119    1.9076 H   0  0  0  0  0  0  0  0  0  0  0  0
   -5.1852   -1.1428    2.2501 H   0  0  0  0  0  0  0  0  0  0  0  0
  1  2  1  0
  2  3  1  0
  3  4  1  0
  4  5  1  0
  5  6  1  0
  6  7  1  0
  7  8  1  0
  8  9  1  0
  9 10  1  0
 10  5  1  0
 11 12  2  0
 11 13  1  0
 13 14  1  0
 11  1  1  0
 15 16  1  0
 16 17  2  0
 16 18  1  0
 15  1  1  0
  1 19  1  6
  2 20  1  0
  2 21  1  0
  5 22  1  0
  6 23  1  0
  6 24  1  0
  7 25  1  0
  7 26  1  0
  8 27  1  0
  8 28  1  0
  9 29  1  0
  9 30  1  0
 10 31  1  0
 10 32  1  0
 13 33  1  0
 14 34  1  0
 14 35  1  0
 14 36  1  0
 15 37  1  0
 18 38  1  0
 18 39  1  0
 18 40  1  0
M  END

