B3L_for_params.pdb
 OpenBabel04012111073D

 34 33  0  0  1  0  0  0  0  0999 V2000
    0.0000    0.0000    0.0000 N   0  0  0  0  0  0  0  0  0  0  0  0
    1.4580    0.0000    0.0000 C   0  0  1  0  0  0  0  0  0  0  0  0
    0.8840    2.4470    0.0000 C   0  0  0  0  0  0  0  0  0  0  0  0
   -0.1990    2.1960   -0.5290 O   0  0  0  0  0  0  0  0  0  0  0  0
    1.9920   -0.7720   -1.2080 C   0  0  0  0  0  0  0  0  0  0  0  0
    0.9200   -1.3620   -2.1320 C   0  0  0  0  0  0  0  0  0  0  0  0
   -0.4680   -1.0240   -1.6040 C   0  0  0  0  0  0  0  0  0  0  0  0
    1.1070   -0.8190   -3.5410 C   0  0  0  0  0  0  0  0  0  0  0  0
    2.0090    1.4200    0.0000 C   0  0  0  0  0  0  0  0  0  0  0  0
    0.0140    4.7520    0.6450 C   0  0  0  0  0  0  0  0  0  0  0  0
   -0.4910    0.0000    1.3860 C   0  0  0  0  0  0  0  0  0  0  0  0
    0.3190    0.4490    2.6160 C   0  0  0  0  0  0  0  0  0  0  0  0
   -0.2520    5.0040   -0.3810 H   0  0  0  0  0  0  0  0  0  0  0  0
    1.9800    3.9660    1.0750 H   0  0  0  0  0  0  0  0  0  0  0  0
    0.3510    5.6490    1.1650 H   0  0  0  0  0  0  0  0  0  0  0  0
   -0.8570    4.3410    1.1550 H   0  0  0  0  0  0  0  0  0  0  0  0
   -0.3370   -0.8240   -0.4770 H   0  0  0  0  0  0  0  0  0  0  0  0
    0.6040   -0.4240    3.2030 H   0  0  0  0  0  0  0  0  0  0  0  0
    1.7920   -0.4940    0.9120 H   0  0  0  0  0  0  0  0  0  0  0  0
   -0.2880    1.1170    3.2280 H   0  0  0  0  0  0  0  0  0  0  0  0
    1.2160    0.9740    2.2880 H   0  0  0  0  0  0  0  0  0  0  0  0
    1.0940    3.7540    0.6390 N   0  0  0  0  0  0  0  0  0  0  0  0
   -1.8370   -0.4820    1.4140 O   0  0  0  0  0  0  0  0  0  0  0  0
    2.5190    0.0350   -1.7150 H   0  0  0  0  0  0  0  0  0  0  0  0
    2.7050   -1.5410   -0.9120 H   0  0  0  0  0  0  0  0  0  0  0  0
    1.0790   -2.4400   -2.1660 H   0  0  0  0  0  0  0  0  0  0  0  0
   -1.2230   -1.4480   -2.2660 H   0  0  0  0  0  0  0  0  0  0  0  0
   -0.5880   -1.4420   -0.6040 H   0  0  0  0  0  0  0  0  0  0  0  0
   -0.5880    0.0580   -1.5620 H   0  0  0  0  0  0  0  0  0  0  0  0
    0.3440   -1.2400   -4.1970 H   0  0  0  0  0  0  0  0  0  0  0  0
    1.0160    0.2670   -3.5280 H   0  0  0  0  0  0  0  0  0  0  0  0
    2.0950   -1.0960   -3.9100 H   0  0  0  0  0  0  0  0  0  0  0  0
    2.6160    1.5870    0.8880 H   0  0  0  0  0  0  0  0  0  0  0  0
    2.6150    1.5860   -0.8900 H   0  0  0  0  0  0  0  0  0  0  0  0
  1  2  1  0  0  0  0
  1 11  1  0  0  0  0
  1 17  1  0  0  0  0
  2  5  1  0  0  0  0
  2  9  1  0  0  0  0
  2 19  1  1  0  0  0
  3  4  2  0  0  0  0
  3 22  1  0  0  0  0
  3  9  1  0  0  0  0
  5  6  1  0  0  0  0
  5 24  1  0  0  0  0
  5 25  1  0  0  0  0
  6  7  1  0  0  0  0
  6  8  1  0  0  0  0
  6 26  1  0  0  0  0
  7 27  1  0  0  0  0
  7 28  1  0  0  0  0
  7 29  1  0  0  0  0
  8 30  1  0  0  0  0
  8 31  1  0  0  0  0
  8 32  1  0  0  0  0
  9 33  1  0  0  0  0
  9 34  1  0  0  0  0
 10 13  1  0  0  0  0
 10 15  1  0  0  0  0
 10 16  1  0  0  0  0
 10 22  1  0  0  0  0
 11 12  1  0  0  0  0
 11 23  2  0  0  0  0
 12 18  1  0  0  0  0
 12 20  1  0  0  0  0
 12 21  1  0  0  0  0
 14 22  1  0  0  0  0
M  ROOT 1
M  POLY_N_BB 1
M  POLY_CA_BB 2
M  POLY_C_BB 3
M  POLY_O_BB 4
M  POLY_IGNORE 10 12 13 14 15 16 18 20 21 23
M  POLY_UPPER 22
M  POLY_LOWER 11
M  POLY_CHG 0
M  POLY_PROPERTIES PROTEIN BETA_AA L_AA ALIPHATIC 
M  END
