./3-pyridyl-L-alanine.log
 OpenBabel03032122583D
Gaussian 09 #B3LYP/6-31G(d) em=GD3BJ Opt=ModRedundant
 31 31  0  0  1  0  0  0  0  0999 V2000
   -1.4134   -1.4122    0.1238 C   0  0  0  0  0  0  0  0  0  0  0  0
   -1.8606    1.0029    0.3513 N   0  0  0  0  0  0  0  0  0  0  0  0
   -0.8097    0.0081    0.1634 C   0  0  1  0  0  0  0  0  0  0  0  0
    0.3453    0.1105    1.1987 C   0  0  0  0  0  0  0  0  0  0  0  0
   -0.7781   -2.3920    0.5029 O   0  0  0  0  0  0  0  0  0  0  0  0
   -2.6637   -1.4755   -0.3967 N   0  0  0  0  0  0  0  0  0  0  0  0
   -3.3813   -2.7247   -0.5700 C   0  0  0  0  0  0  0  0  0  0  0  0
   -1.8064    2.3176   -0.0901 C   0  0  0  0  0  0  0  0  0  0  0  0
   -2.5467    3.1603    0.3902 O   0  0  0  0  0  0  0  0  0  0  0  0
   -0.8273    2.6249   -1.2093 C   0  0  0  0  0  0  0  0  0  0  0  0
    1.7109   -0.0795    0.5827 C   0  0  0  0  0  0  0  0  0  0  0  0
    2.5740    1.0122    0.4287 C   0  0  0  0  0  0  0  0  0  0  0  0
    3.7825    0.9523   -0.1412 N   0  0  0  0  0  0  0  0  0  0  0  0
    4.1861   -0.2425   -0.5878 C   0  0  0  0  0  0  0  0  0  0  0  0
    3.4143   -1.4009   -0.4830 C   0  0  0  0  0  0  0  0  0  0  0  0
    2.1566   -1.3193    0.1088 C   0  0  0  0  0  0  0  0  0  0  0  0
   -2.4096    0.9176    1.2019 H   0  0  0  0  0  0  0  0  0  0  0  0
   -0.3912    0.1736   -0.8340 H   0  0  0  0  0  0  0  0  0  0  0  0
    0.2957    1.1056    1.6523 H   0  0  0  0  0  0  0  0  0  0  0  0
    0.1787   -0.6258    1.9907 H   0  0  0  0  0  0  0  0  0  0  0  0
   -3.1045   -0.5989   -0.6412 H   0  0  0  0  0  0  0  0  0  0  0  0
   -2.7383   -3.5262   -0.2044 H   0  0  0  0  0  0  0  0  0  0  0  0
   -4.3163   -2.7231    0.0014 H   0  0  0  0  0  0  0  0  0  0  0  0
   -3.6122   -2.9017   -1.6265 H   0  0  0  0  0  0  0  0  0  0  0  0
    0.2093    2.4704   -0.8896 H   0  0  0  0  0  0  0  0  0  0  0  0
   -1.0015    1.9866   -2.0830 H   0  0  0  0  0  0  0  0  0  0  0  0
   -0.9622    3.6684   -1.4942 H   0  0  0  0  0  0  0  0  0  0  0  0
    2.2702    1.9937    0.7953 H   0  0  0  0  0  0  0  0  0  0  0  0
    5.1715   -0.2736   -1.0493 H   0  0  0  0  0  0  0  0  0  0  0  0
    3.7933   -2.3468   -0.8589 H   0  0  0  0  0  0  0  0  0  0  0  0
    1.5136   -2.1882    0.2049 H   0  0  0  0  0  0  0  0  0  0  0  0
  1  3  1  0  0  0  0
  1  5  2  0  0  0  0
  2 17  1  0  0  0  0
  3 18  1  6  0  0  0
  3  2  1  0  0  0  0
  3  4  1  0  0  0  0
  4 19  1  0  0  0  0
  4 20  1  0  0  0  0
  6  1  1  0  0  0  0
  7  6  1  0  0  0  0
  7 22  1  0  0  0  0
  7 23  1  0  0  0  0
  8  2  1  0  0  0  0
  8  9  2  0  0  0  0
 10 25  1  0  0  0  0
 10  8  1  0  0  0  0
 11  4  1  0  0  0  0
 12 11  1  0  0  0  0
 12 28  1  0  0  0  0
 13 12  2  0  0  0  0
 14 15  2  0  0  0  0
 14 13  1  0  0  0  0
 15 16  1  0  0  0  0
 16 31  1  0  0  0  0
 16 11  2  0  0  0  0
 21  6  1  0  0  0  0
 24  7  1  0  0  0  0
 26 10  1  0  0  0  0
 27 10  1  0  0  0  0
 29 14  1  0  0  0  0
 30 15  1  0  0  0  0
M  END
