L-BP5.log
 OpenBabel03232119273D
Gaussian 09 #B3LYP/6-31G(d) em=GD3BJ Opt=ModRedundant
 40 41  0  0  1  0  0  0  0  0999 V2000
   -3.2064   -1.4322    0.0656 C   0  0  0  0  0  0  0  0  0  0  0  0
   -3.6972    0.9900    0.0769 N   0  0  0  0  0  0  0  0  0  0  0  0
   -2.6303   -0.0025    0.1424 C   0  0  1  0  0  0  0  0  0  0  0  0
   -1.6889    0.1657    1.3699 C   0  0  0  0  0  0  0  0  0  0  0  0
   -2.6220   -2.3848    0.5739 O   0  0  0  0  0  0  0  0  0  0  0  0
   -4.3629   -1.5373   -0.6339 N   0  0  0  0  0  0  0  0  0  0  0  0
   -5.0249   -2.8063   -0.8717 C   0  0  0  0  0  0  0  0  0  0  0  0
   -3.5648    2.2754   -0.4294 C   0  0  0  0  0  0  0  0  0  0  0  0
   -4.3797    3.1376   -0.1436 O   0  0  0  0  0  0  0  0  0  0  0  0
   -2.3993    2.5255   -1.3699 C   0  0  0  0  0  0  0  0  0  0  0  0
   -0.2287    0.0219    1.0202 C   0  0  0  0  0  0  0  0  0  0  0  0
    0.3337   -1.1957    0.6152 C   0  0  0  0  0  0  0  0  0  0  0  0
    1.6792   -1.2436    0.2731 C   0  0  0  0  0  0  0  0  0  0  0  0
    2.4424   -0.0689    0.3380 C   0  0  0  0  0  0  0  0  0  0  0  0
    1.9148    1.1046    0.7264 N   0  0  0  0  0  0  0  0  0  0  0  0
    0.6227    1.1326    1.0539 C   0  0  0  0  0  0  0  0  0  0  0  0
    3.8839   -0.0729   -0.0233 C   0  0  0  0  0  0  0  0  0  0  0  0
    4.4062   -1.2449   -0.4273 N   0  0  0  0  0  0  0  0  0  0  0  0
    5.6993   -1.2753   -0.7565 C   0  0  0  0  0  0  0  0  0  0  0  0
    6.5375   -0.1606   -0.7056 C   0  0  0  0  0  0  0  0  0  0  0  0
    5.9909    1.0524   -0.2865 C   0  0  0  0  0  0  0  0  0  0  0  0
    4.6453    1.1014    0.0605 C   0  0  0  0  0  0  0  0  0  0  0  0
   -4.3894    0.9517    0.8196 H   0  0  0  0  0  0  0  0  0  0  0  0
   -2.0326    0.1143   -0.7665 H   0  0  0  0  0  0  0  0  0  0  0  0
   -1.8592    1.1640    1.7860 H   0  0  0  0  0  0  0  0  0  0  0  0
   -1.9695   -0.5668    2.1329 H   0  0  0  0  0  0  0  0  0  0  0  0
   -4.7642   -0.6801   -0.9899 H   0  0  0  0  0  0  0  0  0  0  0  0
   -4.4393   -3.5805   -0.3744 H   0  0  0  0  0  0  0  0  0  0  0  0
   -6.0407   -2.8018   -0.4608 H   0  0  0  0  0  0  0  0  0  0  0  0
   -5.0775   -3.0278   -1.9437 H   0  0  0  0  0  0  0  0  0  0  0  0
   -2.4070    1.8291   -2.2160 H   0  0  0  0  0  0  0  0  0  0  0  0
   -2.4845    3.5459   -1.7437 H   0  0  0  0  0  0  0  0  0  0  0  0
   -1.4382    2.4095   -0.8562 H   0  0  0  0  0  0  0  0  0  0  0  0
   -0.2915   -2.0823    0.5732 H   0  0  0  0  0  0  0  0  0  0  0  0
    2.1571   -2.1628   -0.0428 H   0  0  0  0  0  0  0  0  0  0  0  0
    0.2335    2.1008    1.3716 H   0  0  0  0  0  0  0  0  0  0  0  0
    6.0864   -2.2408   -1.0779 H   0  0  0  0  0  0  0  0  0  0  0  0
    7.5828   -0.2453   -0.9856 H   0  0  0  0  0  0  0  0  0  0  0  0
    6.6050    1.9470   -0.2306 H   0  0  0  0  0  0  0  0  0  0  0  0
    4.1670    2.0144    0.3932 H   0  0  0  0  0  0  0  0  0  0  0  0
  1  3  1  0  0  0  0
  1  5  2  0  0  0  0
  2  3  1  0  0  0  0
  2 23  1  0  0  0  0
  3 24  1  6  0  0  0
  3  4  1  0  0  0  0
  4 25  1  0  0  0  0
  4 26  1  0  0  0  0
  6  1  1  0  0  0  0
  7  6  1  0  0  0  0
  7 29  1  0  0  0  0
  7 28  1  0  0  0  0
  8  9  2  0  0  0  0
  8  2  1  0  0  0  0
 10 33  1  0  0  0  0
 10  8  1  0  0  0  0
 11 16  1  0  0  0  0
 11  4  1  0  0  0  0
 12 11  2  0  0  0  0
 13 14  2  0  0  0  0
 13 12  1  0  0  0  0
 14 15  1  0  0  0  0
 15 16  2  0  0  0  0
 16 36  1  0  0  0  0
 17 22  1  0  0  0  0
 17 14  1  0  0  0  0
 18 17  2  0  0  0  0
 19 20  2  0  0  0  0
 19 18  1  0  0  0  0
 20 21  1  0  0  0  0
 21 39  1  0  0  0  0
 21 22  2  0  0  0  0
 22 40  1  0  0  0  0
 27  6  1  0  0  0  0
 30  7  1  0  0  0  0
 31 10  1  0  0  0  0
 32 10  1  0  0  0  0
 34 12  1  0  0  0  0
 35 13  1  0  0  0  0
 37 19  1  0  0  0  0
 38 20  1  0  0  0  0
M  END
