./3-methoxy-L-phenylalanine.log
 OpenBabel03032122553D
Gaussian 09 #B3LYP/6-31G(d) em=GD3BJ Opt=ModRedundant
 36 36  0  0  1  0  0  0  0  0999 V2000
   -1.6971   -1.5858    0.2646 C   0  0  0  0  0  0  0  0  0  0  0  0
   -2.6496    0.6940    0.1488 N   0  0  0  0  0  0  0  0  0  0  0  0
   -1.4080   -0.0709    0.2128 C   0  0  1  0  0  0  0  0  0  0  0  0
   -0.4525    0.3667    1.3602 C   0  0  0  0  0  0  0  0  0  0  0  0
   -0.9082   -2.3698    0.7832 O   0  0  0  0  0  0  0  0  0  0  0  0
   -2.8503   -1.9612   -0.3437 N   0  0  0  0  0  0  0  0  0  0  0  0
   -3.2590   -3.3477   -0.4630 C   0  0  0  0  0  0  0  0  0  0  0  0
   -2.7891    1.9384   -0.4479 C   0  0  0  0  0  0  0  0  0  0  0  0
   -3.7337    2.6578   -0.1637 O   0  0  0  0  0  0  0  0  0  0  0  0
   -1.7455    2.3237   -1.4816 C   0  0  0  0  0  0  0  0  0  0  0  0
    0.9634    0.5940    0.8803 C   0  0  0  0  0  0  0  0  0  0  0  0
    1.7381   -0.4820    0.4477 C   0  0  0  0  0  0  0  0  0  0  0  0
    3.0322   -0.2724   -0.0445 C   0  0  0  0  0  0  0  0  0  0  0  0
    3.5606    1.0229   -0.1085 C   0  0  0  0  0  0  0  0  0  0  0  0
    2.7799    2.0954    0.3273 C   0  0  0  0  0  0  0  0  0  0  0  0
    1.4927    1.8918    0.8173 C   0  0  0  0  0  0  0  0  0  0  0  0
    3.6994   -1.3957   -0.4399 O   0  0  0  0  0  0  0  0  0  0  0  0
    5.0174   -1.2458   -0.9370 C   0  0  0  0  0  0  0  0  0  0  0  0
   -3.2789    0.5889    0.9395 H   0  0  0  0  0  0  0  0  0  0  0  0
   -0.8915    0.0843   -0.7388 H   0  0  0  0  0  0  0  0  0  0  0  0
   -0.8440    1.2936    1.7906 H   0  0  0  0  0  0  0  0  0  0  0  0
   -0.4666   -0.4002    2.1399 H   0  0  0  0  0  0  0  0  0  0  0  0
   -3.4290   -1.2254   -0.7258 H   0  0  0  0  0  0  0  0  0  0  0  0
   -2.5172   -3.9538    0.0586 H   0  0  0  0  0  0  0  0  0  0  0  0
   -4.2424   -3.5073   -0.0068 H   0  0  0  0  0  0  0  0  0  0  0  0
   -3.3017   -3.6586   -1.5134 H   0  0  0  0  0  0  0  0  0  0  0  0
   -0.7523    2.4226   -1.0294 H   0  0  0  0  0  0  0  0  0  0  0  0
   -1.6717    1.5734   -2.2770 H   0  0  0  0  0  0  0  0  0  0  0  0
   -2.0418    3.2792   -1.9149 H   0  0  0  0  0  0  0  0  0  0  0  0
    1.3433   -1.4920    0.4889 H   0  0  0  0  0  0  0  0  0  0  0  0
    4.5597    1.2038   -0.4862 H   0  0  0  0  0  0  0  0  0  0  0  0
    3.1893    3.1011    0.2826 H   0  0  0  0  0  0  0  0  0  0  0  0
    0.8993    2.7348    1.1617 H   0  0  0  0  0  0  0  0  0  0  0  0
    5.3608   -2.2515   -1.1853 H   0  0  0  0  0  0  0  0  0  0  0  0
    5.0402   -0.6212   -1.8402 H   0  0  0  0  0  0  0  0  0  0  0  0
    5.6862   -0.8095   -0.1831 H   0  0  0  0  0  0  0  0  0  0  0  0
  1  5  2  0  0  0  0
  2  3  1  0  0  0  0
  2 19  1  0  0  0  0
  3 20  1  6  0  0  0
  3  1  1  0  0  0  0
  3  4  1  0  0  0  0
  4 21  1  0  0  0  0
  4 22  1  0  0  0  0
  6  1  1  0  0  0  0
  7  6  1  0  0  0  0
  7 25  1  0  0  0  0
  7 24  1  0  0  0  0
  8  9  2  0  0  0  0
  8  2  1  0  0  0  0
 10 27  1  0  0  0  0
 10  8  1  0  0  0  0
 11  4  1  0  0  0  0
 12 30  1  0  0  0  0
 12 11  2  0  0  0  0
 13 12  1  0  0  0  0
 14 13  2  0  0  0  0
 14 15  1  0  0  0  0
 15 16  2  0  0  0  0
 16 11  1  0  0  0  0
 16 33  1  0  0  0  0
 17 13  1  0  0  0  0
 18 17  1  0  0  0  0
 18 36  1  0  0  0  0
 23  6  1  0  0  0  0
 26  7  1  0  0  0  0
 28 10  1  0  0  0  0
 29 10  1  0  0  0  0
 31 14  1  0  0  0  0
 32 15  1  0  0  0  0
 34 18  1  0  0  0  0
 35 18  1  0  0  0  0
M  END
